Version 4
SHEET 1 968 680
WIRE 912 -240 576 -240
WIRE 576 -192 576 -240
WIRE 112 -176 64 -176
WIRE 256 -176 192 -176
WIRE 320 -176 256 -176
WIRE 528 -176 320 -176
WIRE 320 -160 320 -176
WIRE 64 -112 64 -176
WIRE 160 -112 64 -112
WIRE 256 -112 256 -176
WIRE 256 -112 224 -112
WIRE 320 -80 320 -96
WIRE 912 -80 912 -240
WIRE 64 -32 64 -112
WIRE 160 -32 64 -32
WIRE 304 -32 224 -32
WIRE 576 -16 576 -96
WIRE 752 -16 752 -64
WIRE 64 64 64 -32
WIRE 160 64 64 64
WIRE 304 64 304 -32
WIRE 304 64 240 64
WIRE 528 64 304 64
WIRE 64 112 64 64
WIRE 304 112 304 64
WIRE 752 112 752 64
WIRE 576 144 576 80
WIRE 912 144 912 0
WIRE 64 240 64 192
WIRE 304 240 304 176
FLAG 64 240 0
FLAG 304 240 0
FLAG 576 144 0
FLAG 912 144 0
FLAG 320 -80 0
FLAG 752 112 0
SYMBOL voltage 64 96 R0
WINDOW 123 0 0 Left 0
WINDOW 39 0 0 Left 0
SYMATTR InstName V1
SYMATTR Value PULSE(0 12 0 1u 1u 1m 2m)
SYMBOL res 256 48 R90
WINDOW 0 0 56 VBottom 2
WINDOW 3 32 56 VTop 2
SYMATTR InstName R1
SYMATTR Value 20k
SYMBOL cap 288 112 R0
SYMATTR InstName C1
SYMATTR Value 1n
SYMBOL diode 224 -48 R90
WINDOW 0 0 32 VBottom 2
WINDOW 3 32 32 VTop 2
SYMATTR InstName D1
SYMATTR Value 1N4148
SYMBOL nmos 528 -16 R0
SYMATTR InstName M1
SYMATTR Value AO3400
SYMATTR Prefix X
SYMBOL pmos 528 -96 M180
SYMATTR InstName M2
SYMATTR Value AO3401a
SYMATTR Prefix X
SYMBOL voltage 912 -96 R0
WINDOW 123 0 0 Left 0
WINDOW 39 0 0 Left 0
SYMATTR InstName V2
SYMATTR Value 12
SYMBOL res 208 -192 R90
WINDOW 0 0 56 VBottom 2
WINDOW 3 32 56 VTop 2
SYMATTR InstName R2
SYMATTR Value 20k
SYMBOL cap 304 -160 R0
SYMATTR InstName C2
SYMATTR Value 1n
SYMBOL diode 160 -96 R270
WINDOW 0 32 32 VTop 2
WINDOW 3 0 32 VBottom 2
SYMATTR InstName D2
SYMATTR Value 1N4148
SYMBOL res 736 -32 R0
SYMATTR InstName R3
SYMATTR Value 4
TEXT 32 264 Left 2 !.tran 0 5m 0 0.1u
TEXT 32 344 Left 2 !.lib C:\\users\\lucas\\Escritorio\\AO3401A.lib
TEXT 32 416 Left 2 !;step param x list 10p 100p 1n 10n 100n
