Version 4
SHEET 1 880 680
WIRE 16 -96 -416 -96
WIRE 16 -64 16 -96
WIRE -416 64 -416 -96
WIRE 16 64 16 16
WIRE 80 64 16 64
WIRE 336 64 272 64
WIRE 528 64 416 64
WIRE 528 128 528 64
WIRE 16 160 -80 160
WIRE 80 160 16 160
WIRE 304 160 272 160
WIRE 16 192 16 160
WIRE 304 288 304 160
WIRE 528 288 528 208
WIRE -416 304 -416 144
WIRE 16 304 16 272
FLAG 16 304 0
FLAG -416 304 0
FLAG 528 288 0
FLAG 304 288 0
FLAG -80 160 VinFPGA
SYMBOL Optos\\PC817A 176 112 M0
SYMATTR InstName U1
SYMBOL res 0 -80 R0
SYMATTR InstName R1
SYMATTR Value 220
SYMBOL res 0 176 R0
SYMATTR InstName R2
SYMATTR Value 820
SYMBOL voltage -416 48 R0
WINDOW 123 0 0 Left 0
WINDOW 39 0 0 Left 0
SYMATTR InstName V1
SYMATTR Value 3.3
SYMBOL res 432 48 R90
WINDOW 0 0 56 VBottom 2
WINDOW 3 32 56 VTop 2
SYMATTR InstName R3
SYMATTR Value 820
SYMBOL voltage 528 112 R0
WINDOW 123 0 0 Left 0
WINDOW 39 0 0 Left 0
SYMATTR InstName V2
SYMATTR Value 5
TEXT -274 328 Left 2 !.tran 0 500m 0 1u
