Version 4
SHEET 1 1140 680
WIRE 464 0 320 0
WIRE 848 0 464 0
WIRE 464 16 464 0
WIRE 320 32 320 0
WIRE 464 128 464 96
WIRE -80 144 -144 144
WIRE -48 144 -80 144
WIRE 64 144 32 144
WIRE 96 144 64 144
WIRE 320 144 320 112
WIRE 320 144 288 144
WIRE 368 144 320 144
WIRE 416 144 368 144
WIRE -144 176 -144 144
WIRE 848 176 848 0
WIRE 96 240 48 240
WIRE 320 240 288 240
WIRE 464 240 464 224
WIRE 464 256 464 240
WIRE 640 256 464 256
WIRE -144 272 -144 256
WIRE 48 272 48 240
WIRE 48 272 -144 272
WIRE 48 288 48 272
WIRE 320 288 320 240
WIRE 464 288 464 256
WIRE 640 304 640 256
WIRE 368 368 368 144
WIRE 416 368 368 368
WIRE 848 400 848 256
WIRE 464 432 464 384
WIRE 640 432 640 384
FLAG 464 432 0
FLAG 48 288 0
FLAG 848 400 0
FLAG 320 288 0
FLAG 320 144 Vo
FLAG 64 144 Vd
FLAG -80 144 Vi
FLAG 464 240 Vref
FLAG 640 432 0
SYMBOL Optos\\PC817A 192 192 R0
SYMATTR InstName U1
SYMBOL res 304 16 R0
SYMATTR InstName R1
SYMATTR Value 4.7k
SYMBOL res -64 160 R270
WINDOW 0 32 56 VTop 2
WINDOW 3 0 56 VBottom 2
SYMATTR InstName R2
SYMATTR Value 470
SYMBOL voltage -144 160 R0
WINDOW 123 0 0 Left 0
WINDOW 39 0 0 Left 0
SYMATTR InstName V1
SYMATTR Value PULSE(0 2.5 0 1u 1u 0.1 0.2)
SYMBOL voltage 848 160 R0
WINDOW 123 0 0 Left 0
WINDOW 39 0 0 Left 0
SYMATTR InstName V2
SYMATTR Value 12
SYMBOL pmos 416 224 M180
SYMATTR InstName M1
SYMATTR Value AO3401A
SYMATTR Prefix X
SYMBOL nmos 416 288 R0
SYMATTR InstName M2
SYMATTR Value AO3400
SYMATTR Prefix X
SYMBOL res 624 288 R0
SYMATTR InstName R3
SYMATTR Value 10k
SYMBOL res 448 0 R0
SYMATTR InstName R4
SYMATTR Value 0
TEXT -176 424 Left 2 !.tran 0 150m 0 1u
TEXT -160 488 Left 2 !.lib Z:\\home\\lucas\\Documentos\\LTSpice\\Interfaz_CycloneIII\\simulaciones\\AO3401A.lib
