Version 4
SHEET 1 880 924
WIRE -544 352 -560 352
WIRE -432 352 -464 352
WIRE -416 352 -432 352
WIRE -192 352 -192 320
WIRE -192 352 -336 352
WIRE -80 352 -192 352
WIRE -560 384 -560 352
WIRE -80 400 -80 352
WIRE -192 480 -192 352
WIRE -432 496 -432 352
WIRE -224 496 -432 496
WIRE -80 512 -80 480
WIRE -80 512 -160 512
WIRE -416 528 -576 528
WIRE -304 528 -336 528
WIRE -224 528 -304 528
WIRE -576 544 -576 528
WIRE -192 560 -192 544
WIRE -304 656 -304 528
WIRE -240 656 -304 656
WIRE -80 656 -80 512
WIRE -80 656 -160 656
FLAG -192 560 0
FLAG -560 384 0
FLAG -576 624 0
FLAG -192 320 Vcc
FLAG -992 592 0
FLAG -992 512 Vcc
SYMBOL OpAmps\\opamp2 -192 448 R0
SYMATTR InstName U1
SYMATTR Value uA741
SYMBOL res -320 512 R90
WINDOW 0 0 56 VBottom 2
WINDOW 3 32 56 VTop 2
SYMATTR InstName R1
SYMATTR Value 10k
SYMBOL res -144 640 R90
WINDOW 0 0 56 VBottom 2
WINDOW 3 32 56 VTop 2
SYMATTR InstName R2
SYMATTR Value 1e6
SYMBOL res -96 384 R0
SYMATTR InstName R3
SYMATTR Value 10k
SYMBOL res -320 336 R90
WINDOW 0 0 56 VBottom 2
WINDOW 3 32 56 VTop 2
SYMATTR InstName R4
SYMATTR Value 100k
SYMBOL res -448 336 R90
WINDOW 0 0 56 VBottom 2
WINDOW 3 32 56 VTop 2
SYMATTR InstName R5
SYMATTR Value 4.7k
SYMBOL voltage -576 528 R0
WINDOW 123 0 0 Left 0
WINDOW 39 0 0 Left 0
SYMATTR InstName V1
SYMATTR Value PULSE(0 12 0 1u 1u 1m 2m)
SYMBOL voltage -992 496 R0
WINDOW 123 0 0 Left 0
WINDOW 39 0 0 Left 0
SYMATTR InstName V2
SYMATTR Value 12
TEXT -488 752 Left 2 !.lib "C:\\users\\lucas\\Mis Documentos\\LTSpice\\Interfaz_CycloneIII\\simulaciones\\LM741.lib"
TEXT -1026 772 Left 2 !.tran 0 10m 0 0.1m
