Version 4
SHEET 1 880 680
WIRE 432 64 208 64
WIRE 208 112 208 64
WIRE 432 176 432 64
WIRE 160 192 32 192
WIRE 32 208 32 192
WIRE 32 304 32 288
WIRE 208 304 208 208
WIRE 208 304 32 304
WIRE 432 304 432 256
WIRE 432 304 208 304
WIRE 32 320 32 304
WIRE 432 320 432 304
FLAG 32 320 0
FLAG 432 320 0
SYMBOL pmos 160 112 R0
SYMATTR InstName M1
SYMATTR Value AO6407
SYMBOL voltage 32 192 R0
WINDOW 123 0 0 Left 0
WINDOW 39 0 0 Left 0
SYMATTR InstName V1
SYMATTR Value PULSE(0 -5 0 1u 1u 0.1 0.2)
SYMBOL voltage 432 160 R0
WINDOW 123 0 0 Left 0
WINDOW 39 0 0 Left 0
SYMATTR InstName V2
SYMATTR Value 5
TEXT -2 344 Left 2 !.tran 0 500m 0 1u
